17
8003
C          0.00000        0.34780       -0.02280
C          1.26210       -0.51400       -0.00010
C         -1.26210       -0.51400       -0.00010
C          1.32321       -1.37972        1.24819
C         -2.52013        0.33954       -0.02258
H          0.00000        0.97830       -0.92020
H          0.00000        1.02010        0.84390
H          2.15092        0.12654       -0.03903
H          1.28849       -1.16008       -0.88541
H         -1.26783       -1.18833       -0.86431
H         -1.27012       -1.13982        0.89990
H          0.46443       -2.05665        1.29884
H          1.32911       -0.76339        2.15300
H          2.23409       -1.98657        1.24437
H         -2.56079        1.00169        0.84825
H         -3.41031       -0.29698       -0.00721
H         -2.55917        0.95658       -0.92585
