17
8003
C          0.00000        0.34780       -0.02280
C          1.26210       -0.51400       -0.00010
C         -1.26210       -0.51400       -0.00010
C          1.32321       -1.44423       -1.20108
C         -2.52013        0.33954       -0.02258
H          0.00000        0.97830       -0.92020
H          0.00000        1.02010        0.84390
H          1.28947       -1.10979        0.91973
H          2.15144        0.12707        0.00172
H         -1.26783       -1.18833       -0.86431
H         -1.27012       -1.13982        0.89990
H          1.33191       -0.87672       -2.13712
H          0.46275       -2.12094       -1.21719
H          2.23283       -2.05186       -1.16398
H         -2.56079        1.00169        0.84825
H         -3.41031       -0.29698       -0.00721
H         -2.55917        0.95658       -0.92585
