17
8003
C          0.00000        0.34780       -0.02280
C          1.26210       -0.51400       -0.00010
C         -1.26210       -0.51400       -0.00010
C          1.32321       -1.37972        1.24819
C         -1.32326       -1.44431       -1.20113
H          0.00000        0.97830       -0.92020
H          0.00000        1.02010        0.84390
H          2.15092        0.12654       -0.03903
H          1.28849       -1.16008       -0.88541
H         -1.28947       -1.10965        0.91973
H         -2.15134        0.12707        0.00182
H          0.46443       -2.05665        1.29884
H          1.32911       -0.76339        2.15300
H          2.23409       -1.98657        1.24437
H         -1.33185       -0.87673       -2.13719
H         -2.23278       -2.05193       -1.16393
H         -0.46299       -2.12093       -1.21715
